*** SPICE deck for cell Simulacion_Matrix_4096{lay} from library pixel
*** Created on lun ene 20, 2020 12:32:13
*** Last revised on lun ene 20, 2020 15:48:13
*** Written on lun ene 20, 2020 15:48:16 by Electric VLSI Design System, version 9.07
*** Layout tech: mocmos, foundry MOSIS
*** UC SPICE *** , MIN_RESIST 4.0, MIN_CAPAC 0.1FF
***    P-Active:	areacap=0.9FF/um^2,	edgecap=0.0FF/um,	res=2.5ohms/sq
***    N-Active:	areacap=0.9FF/um^2,	edgecap=0.0FF/um,	res=3.0ohms/sq
***    Polysilicon-1:	areacap=0.1467FF/um^2,	edgecap=0.0608FF/um,	res=6.2ohms/sq
***    Polysilicon-2:	areacap=1.0FF/um^2,	edgecap=0.0FF/um,	res=50.0ohms/sq
***    Transistor-Poly:	areacap=0.09FF/um^2,	edgecap=0.0FF/um,	res=2.5ohms/sq
***    Poly-Cut:	areacap=0.0FF/um^2,	edgecap=0.0FF/um,	res=2.2ohms/sq
***    Active-Cut:	areacap=0.0FF/um^2,	edgecap=0.0FF/um,	res=2.5ohms/sq
***    Metal-1:	areacap=0.1209FF/um^2,	edgecap=0.1104FF/um,	res=0.078ohms/sq
***    Via1:	areacap=0.0FF/um^2,	edgecap=0.0FF/um,	res=1.0ohms/sq
***    Metal-2:	areacap=0.0843FF/um^2,	edgecap=0.0974FF/um,	res=0.078ohms/sq
***    Via2:	areacap=0.0FF/um^2,	edgecap=0.0FF/um,	res=0.9ohms/sq
***    Metal-3:	areacap=0.0843FF/um^2,	edgecap=0.0974FF/um,	res=0.078ohms/sq
***    Via3:	areacap=0.0FF/um^2,	edgecap=0.0FF/um,	res=0.8ohms/sq
***    Metal-4:	areacap=0.0843FF/um^2,	edgecap=0.0974FF/um,	res=0.078ohms/sq
***    Via4:	areacap=0.0FF/um^2,	edgecap=0.0FF/um,	res=0.8ohms/sq
***    Metal-5:	areacap=0.0843FF/um^2,	edgecap=0.0974FF/um,	res=0.078ohms/sq
***    Via5:	areacap=0.0FF/um^2,	edgecap=0.0FF/um,	res=0.8ohms/sq
***    Metal-6:	areacap=0.0423FF/um^2,	edgecap=0.1273FF/um,	res=0.036ohms/sq
***    Hi-Res:	areacap=0.0FF/um^2,	edgecap=0.0FF/um,	res=1.0ohms/sq

*** SUBCIRCUIT pixel__pixelv3 FROM CELL pixelv3{lay}
.SUBCKT pixel__pixelv3 FD gnd_pix out reset select vdd_f vdd_reset
Mnmos@1 net@90 FD#1nmos@1_poly-right vdd_f gnd_pix NMOS L=0.6U W=3U AS=4.95P AD=1.688P PS=9.3U PD=4.65U
Mnmos@2 out select#2nmos@2_poly-left net@90 gnd_pix NMOS L=0.6U W=3U AS=1.688P AD=4.95P PS=4.65U PD=9.3U
Mnmos@3 vdd_reset reset#0nmos@3_poly-left FD gnd_pix NMOS L=0.6U W=3U AS=9.45P AD=4.95P PS=18.3U PD=9.3U
** Extracted Parasitic Capacitors ***
C0 out 0 1.427fF
C1 FD 0 3.614fF
C2 reset 0 0.973fF
C3 select 0 3.169fF
C4 select#2nmos@2_poly-left 0 0.134fF
C5 FD#2pin@50_polysilicon-1 0 0.141fF
C6 reset#1pin@103_polysilicon-1 0 0.284fF
C7 select#1pin@124_polysilicon-1 0 0.339fF
** Extracted Parasitic Resistors ***
R0 FD#1nmos@1_poly-right FD#1nmos@1_poly-right##0 6.975
R1 FD#1nmos@1_poly-right##0 FD#2pin@50_polysilicon-1 6.975
R2 FD FD#2pin@50_polysilicon-1 4.65
R3 reset#0nmos@3_poly-left reset#1pin@103_polysilicon-1 7.75
R4 select select#1pin@124_polysilicon-1 4.96
R5 select#2nmos@2_poly-left select#2nmos@2_poly-left##0 8.783
C8 select#2nmos@2_poly-left##0 0 0.134fF
R6 select#2nmos@2_poly-left##0 select#2nmos@2_poly-left##1 8.783
C9 select#2nmos@2_poly-left##1 0 0.134fF
R7 select#2nmos@2_poly-left##1 select#1pin@124_polysilicon-1 8.783
R8 reset reset#1pin@103_polysilicon-1 4.96
.ENDS pixel__pixelv3

*** SUBCIRCUIT pixel__Matrix_4 FROM CELL Matrix_4{lay}
.SUBCKT pixel__Matrix_4 gnd_0 gnd_1 out out_1 reset reset_1 select select_1 vdd_0 vdd_1 vdd_reset vdd_reset_1
Xpixelv3@11 pixelv3@11_FD gnd_0 out reset_1 select_1 vdd_1 vdd_reset_1 pixel__pixelv3
Xpixelv3@15 pixelv3@15_FD gnd_1 out_1 reset_1 select_1 vdd_1 vdd_reset_1 pixel__pixelv3
Xpixelv3@16 pixelv3@16_FD gnd_0 out reset select vdd_0 vdd_reset pixel__pixelv3
Xpixelv3@17 pixelv3@17_FD gnd_1 out_1 reset select vdd_0 vdd_reset pixel__pixelv3
** Extracted Parasitic Capacitors ***
C0 out 0 5.598fF
C1 reset_1 0 4.439fF
C2 select_1 0 4.439fF
C3 out_1 0 5.598fF
C4 reset 0 4.439fF
C5 select 0 4.439fF
** Extracted Parasitic Resistors ***
.ENDS pixel__Matrix_4

*** SUBCIRCUIT pixel__Matrix_16 FROM CELL Matrix_16{lay}
.SUBCKT pixel__Matrix_16 gnd out_0 out_1 out_2 out_3 reset_0 reset_1 reset_2 reset_3 select_0 select_1 select_2 select_3 vdd vdd_reset
XMatrix_4@4 gnd gnd out_0 out_1 reset_2 reset_3 select_2 select_3 vdd vdd vdd_reset vdd_reset pixel__Matrix_4
XMatrix_4@5 gnd gnd out_2 out_3 reset_2 reset_3 select_2 select_3 vdd vdd vdd_reset vdd_reset pixel__Matrix_4
XMatrix_4@6 gnd gnd out_0 out_1 reset_0 reset_1 select_0 select_1 vdd vdd vdd_reset vdd_reset pixel__Matrix_4
XMatrix_4@7 gnd gnd out_2 out_3 reset_0 reset_1 select_0 select_1 vdd vdd vdd_reset vdd_reset pixel__Matrix_4
** Extracted Parasitic Capacitors ***
C0 out_0 0 11.196fF
C1 out_1 0 11.196fF
C2 reset_2 0 8.923fF
C3 reset_3 0 8.923fF
C4 select_2 0 8.923fF
C5 select_3 0 8.923fF
C6 out_2 0 11.196fF
C7 out_3 0 11.196fF
C8 reset_0 0 8.879fF
C9 reset_1 0 8.879fF
C10 select_0 0 8.879fF
C11 select_1 0 8.879fF
** Extracted Parasitic Resistors ***
.ENDS pixel__Matrix_16

*** SUBCIRCUIT pixel__Matrix_64 FROM CELL Matrix_64{lay}
.SUBCKT pixel__Matrix_64 gnd out_0 out_1 out_2 out_3 out_4 out_5 out_6 out_7 reset_0 reset_1 reset_2 reset_3 reset_4 reset_5 reset_6 reset_7 select_0 select_1 select_2 select_3 select_4 select_5 select_6 select_7 vdd vdd_reset
XMatrix_1@0 gnd out_0 out_1 out_2 out_3 reset_4 reset_5 reset_6 reset_7 select_4 select_5 select_6 select_7 vdd vdd_reset pixel__Matrix_16
XMatrix_1@1 gnd out_4 out_5 out_6 out_7 reset_4#0Matrix_1@1_reset_0 reset_5#0Matrix_1@1_reset_1 reset_6#0Matrix_1@1_reset_2 reset_7#0Matrix_1@1_reset_3 select_4#0Matrix_1@1_select_0 select_5#0Matrix_1@1_select_1 select_6#0Matrix_1@1_select_2 select_7#0Matrix_1@1_select_3 vdd vdd_reset pixel__Matrix_16
XMatrix_1@2 gnd out_0 out_1 out_2 out_3 reset_0 reset_1 reset_2 reset_3 select_0 select_1 select_2 select_3 vdd vdd_reset pixel__Matrix_16
XMatrix_1@3 gnd out_4 out_5 out_6 out_7 reset_0#0Matrix_1@3_reset_0 reset_1#0Matrix_1@3_reset_1 reset_2#0Matrix_1@3_reset_2 reset_3#0Matrix_1@3_reset_3 select_0#0Matrix_1@3_select_0 select_1#0Matrix_1@3_select_1 select_2#0Matrix_1@3_select_2 select_3#0Matrix_1@3_select_3 vdd vdd_reset pixel__Matrix_16
** Extracted Parasitic Capacitors ***
C0 out_0 0 22.392fF
C1 out_1 0 22.392fF
C2 out_2 0 22.392fF
C3 out_3 0 22.392fF
C4 reset_4 0 9.212fF
C5 reset_5 0 9.212fF
C6 reset_6 0 9.212fF
C7 reset_7 0 9.212fF
C8 select_4 0 9.212fF
C9 select_5 0 9.212fF
C10 select_6 0 9.212fF
C11 select_7 0 9.212fF
C12 out_4 0 22.392fF
C13 out_5 0 22.392fF
C14 out_6 0 22.392fF
C15 out_7 0 22.392fF
C16 reset_4#0Matrix_1@1_reset_0 0 9.212fF
C17 reset_5#0Matrix_1@1_reset_1 0 9.212fF
C18 reset_6#0Matrix_1@1_reset_2 0 9.212fF
C19 reset_7#0Matrix_1@1_reset_3 0 9.212fF
C20 select_4#0Matrix_1@1_select_0 0 9.212fF
C21 select_5#0Matrix_1@1_select_1 0 9.212fF
C22 select_6#0Matrix_1@1_select_2 0 9.212fF
C23 select_7#0Matrix_1@1_select_3 0 9.212fF
C24 reset_0 0 9.212fF
C25 reset_1 0 9.212fF
C26 reset_2 0 9.212fF
C27 reset_3 0 9.212fF
C28 select_0 0 9.212fF
C29 select_1 0 9.212fF
C30 select_2 0 9.212fF
C31 select_3 0 9.212fF
C32 reset_0#0Matrix_1@3_reset_0 0 9.212fF
C33 reset_1#0Matrix_1@3_reset_1 0 9.212fF
C34 reset_2#0Matrix_1@3_reset_2 0 9.212fF
C35 reset_3#0Matrix_1@3_reset_3 0 9.212fF
C36 select_0#0Matrix_1@3_select_0 0 9.212fF
C37 select_1#0Matrix_1@3_select_1 0 9.212fF
C38 select_2#0Matrix_1@3_select_2 0 9.212fF
C39 select_3#0Matrix_1@3_select_3 0 9.212fF
** Extracted Parasitic Resistors ***
R0 select_0 select_0#0Matrix_1@3_select_0 4.046
R1 reset_1 reset_1#0Matrix_1@3_reset_1 4.046
R2 select_1 select_1#0Matrix_1@3_select_1 4.046
R3 reset_2 reset_2#0Matrix_1@3_reset_2 4.046
R4 select_2 select_2#0Matrix_1@3_select_2 4.046
R5 reset_3 reset_3#0Matrix_1@3_reset_3 4.046
R6 select_3 select_3#0Matrix_1@3_select_3 4.046
R7 reset_0 reset_0#0Matrix_1@3_reset_0 4.046
R8 reset_4 reset_4#0Matrix_1@1_reset_0 4.046
R9 select_4 select_4#0Matrix_1@1_select_0 4.046
R10 reset_5 reset_5#0Matrix_1@1_reset_1 4.046
R11 select_5 select_5#0Matrix_1@1_select_1 4.046
R12 reset_6 reset_6#0Matrix_1@1_reset_2 4.046
R13 select_6 select_6#0Matrix_1@1_select_2 4.046
R14 reset_7 reset_7#0Matrix_1@1_reset_3 4.046
R15 select_7 select_7#0Matrix_1@1_select_3 4.046
.ENDS pixel__Matrix_64

*** SUBCIRCUIT pixel__Matrix_256 FROM CELL Matrix_256{lay}
.SUBCKT pixel__Matrix_256 gnd out_0 out_1 out_10 out_11 out_12 out_13 out_14 out_15 out_2 out_3 out_4 out_5 out_6 out_7 out_8 out_9 reset_0 reset_1 reset_10 reset_11 reset_12 reset_13 reset_14 reset_15 reset_2 reset_3 reset_4 reset_5 reset_6 reset_7 reset_8 reset_9 select_0 select_1 select_10 select_11 select_12 select_13 select_14 select_15 select_2 select_3 select_4 select_5 select_6 select_7 select_8 select_9 vdd vdd_reset
XMatrix_6@0 gnd out_0 out_1 out_2 out_3 out_4 out_5 out_6 out_7 reset_8 reset_9 reset_10 reset_11 reset_12 reset_13 reset_14 reset_15 select_8 select_9 select_10 select_11 select_12 select_13 select_14 select_15 vdd vdd_reset pixel__Matrix_64
XMatrix_6@1 gnd out_8 out_9 out_10 out_11 out_12 out_13 out_14 out_15 reset_8#0Matrix_6@1_reset_0 reset_9#0Matrix_6@1_reset_1 reset_10#0Matrix_6@1_reset_2 reset_11#0Matrix_6@1_reset_3 reset_12#0Matrix_6@1_reset_4 reset_13#0Matrix_6@1_reset_5 reset_14#0Matrix_6@1_reset_6 reset_15#0Matrix_6@1_reset_7 select_8#0Matrix_6@1_select_0 select_9#0Matrix_6@1_select_1 select_10#0Matrix_6@1_select_2 select_11#0Matrix_6@1_select_3 select_12#0Matrix_6@1_select_4 select_13#0Matrix_6@1_select_5 
+select_14#0Matrix_6@1_select_6 select_15#0Matrix_6@1_select_7 vdd vdd_reset pixel__Matrix_64
XMatrix_6@2 gnd out_0#0Matrix_6@2_out_0 out_1#0Matrix_6@2_out_1 out_2#0Matrix_6@2_out_2 out_3#0Matrix_6@2_out_3 out_4#0Matrix_6@2_out_4 out_5#0Matrix_6@2_out_5 out_6#0Matrix_6@2_out_6 out_7#0Matrix_6@2_out_7 reset_0 reset_1 reset_2 reset_3 reset_4 reset_5 reset_6 reset_7 select_0 select_1 select_2 select_3 select_4 select_5 select_6 select_7 vdd vdd_reset pixel__Matrix_64
XMatrix_6@3 gnd out_8#0Matrix_6@3_out_0 out_9#0Matrix_6@3_out_1 out_10#0Matrix_6@3_out_2 out_11#0Matrix_6@3_out_3 out_12#0Matrix_6@3_out_4 out_13#0Matrix_6@3_out_5 out_14#0Matrix_6@3_out_6 out_15#0Matrix_6@3_out_7 reset_0#0Matrix_6@3_reset_0 reset_1#0Matrix_6@3_reset_1 reset_2#0Matrix_6@3_reset_2 reset_3#0Matrix_6@3_reset_3 reset_4#0Matrix_6@3_reset_4 reset_5#0Matrix_6@3_reset_5 reset_6#0Matrix_6@3_reset_6 reset_7#0Matrix_6@3_reset_7 select_0#0Matrix_6@3_select_0 select_1#0Matrix_6@3_select_1 
+select_2#0Matrix_6@3_select_2 select_3#0Matrix_6@3_select_3 select_4#0Matrix_6@3_select_4 select_5#0Matrix_6@3_select_5 select_6#0Matrix_6@3_select_6 select_7#0Matrix_6@3_select_7 vdd vdd_reset pixel__Matrix_64
** Extracted Parasitic Capacitors ***
C0 out_0 0 22.749fF
C1 out_1 0 22.749fF
C2 out_2 0 22.749fF
C3 out_3 0 22.749fF
C4 out_4 0 22.749fF
C5 out_5 0 22.749fF
C6 out_6 0 22.749fF
C7 out_7 0 22.749fF
C8 reset_8 0 18.446fF
C9 reset_9 0 18.446fF
C10 reset_10 0 18.446fF
C11 reset_11 0 18.446fF
C12 reset_12 0 18.446fF
C13 reset_13 0 18.446fF
C14 reset_14 0 18.446fF
C15 reset_15 0 18.446fF
C16 select_8 0 18.446fF
C17 select_9 0 18.446fF
C18 select_10 0 18.446fF
C19 select_11 0 18.446fF
C20 select_12 0 18.446fF
C21 select_13 0 18.446fF
C22 select_14 0 18.446fF
C23 select_15 0 18.446fF
C24 out_8 0 22.749fF
C25 out_9 0 22.749fF
C26 out_10 0 22.749fF
C27 out_11 0 22.749fF
C28 out_12 0 22.749fF
C29 out_13 0 22.749fF
C30 out_14 0 22.749fF
C31 out_15 0 22.749fF
C32 reset_8#0Matrix_6@1_reset_0 0 18.446fF
C33 reset_9#0Matrix_6@1_reset_1 0 18.446fF
C34 reset_10#0Matrix_6@1_reset_2 0 18.446fF
C35 reset_11#0Matrix_6@1_reset_3 0 18.446fF
C36 reset_12#0Matrix_6@1_reset_4 0 18.446fF
C37 reset_13#0Matrix_6@1_reset_5 0 18.446fF
C38 reset_14#0Matrix_6@1_reset_6 0 18.446fF
C39 reset_15#0Matrix_6@1_reset_7 0 18.446fF
C40 select_8#0Matrix_6@1_select_0 0 18.446fF
C41 select_9#0Matrix_6@1_select_1 0 18.446fF
C42 select_10#0Matrix_6@1_select_2 0 18.446fF
C43 select_11#0Matrix_6@1_select_3 0 18.446fF
C44 select_12#0Matrix_6@1_select_4 0 18.446fF
C45 select_13#0Matrix_6@1_select_5 0 18.446fF
C46 select_14#0Matrix_6@1_select_6 0 18.446fF
C47 select_15#0Matrix_6@1_select_7 0 18.446fF
C48 out_0#0Matrix_6@2_out_0 0 22.749fF
C49 out_1#0Matrix_6@2_out_1 0 22.749fF
C50 out_2#0Matrix_6@2_out_2 0 22.749fF
C51 out_3#0Matrix_6@2_out_3 0 22.749fF
C52 out_4#0Matrix_6@2_out_4 0 22.749fF
C53 out_5#0Matrix_6@2_out_5 0 22.749fF
C54 out_6#0Matrix_6@2_out_6 0 22.749fF
C55 out_7#0Matrix_6@2_out_7 0 22.749fF
C56 reset_0 0 18.446fF
C57 reset_1 0 18.446fF
C58 reset_2 0 18.446fF
C59 reset_3 0 18.446fF
C60 reset_4 0 18.446fF
C61 reset_5 0 18.446fF
C62 reset_6 0 18.446fF
C63 reset_7 0 18.446fF
C64 select_0 0 18.446fF
C65 select_1 0 18.446fF
C66 select_2 0 18.446fF
C67 select_3 0 18.446fF
C68 select_4 0 18.446fF
C69 select_5 0 18.446fF
C70 select_6 0 18.446fF
C71 select_7 0 18.446fF
C72 out_8#0Matrix_6@3_out_0 0 22.749fF
C73 out_9#0Matrix_6@3_out_1 0 22.749fF
C74 out_10#0Matrix_6@3_out_2 0 22.749fF
C75 out_11#0Matrix_6@3_out_3 0 22.749fF
C76 out_12#0Matrix_6@3_out_4 0 22.749fF
C77 out_13#0Matrix_6@3_out_5 0 22.749fF
C78 out_14#0Matrix_6@3_out_6 0 22.749fF
C79 out_15#0Matrix_6@3_out_7 0 22.749fF
C80 reset_0#0Matrix_6@3_reset_0 0 18.446fF
C81 reset_1#0Matrix_6@3_reset_1 0 18.446fF
C82 reset_2#0Matrix_6@3_reset_2 0 18.446fF
C83 reset_3#0Matrix_6@3_reset_3 0 18.446fF
C84 reset_4#0Matrix_6@3_reset_4 0 18.446fF
C85 reset_5#0Matrix_6@3_reset_5 0 18.446fF
C86 reset_6#0Matrix_6@3_reset_6 0 18.446fF
C87 reset_7#0Matrix_6@3_reset_7 0 18.446fF
C88 select_0#0Matrix_6@3_select_0 0 18.446fF
C89 select_1#0Matrix_6@3_select_1 0 18.446fF
C90 select_2#0Matrix_6@3_select_2 0 18.446fF
C91 select_3#0Matrix_6@3_select_3 0 18.446fF
C92 select_4#0Matrix_6@3_select_4 0 18.446fF
C93 select_5#0Matrix_6@3_select_5 0 18.446fF
C94 select_6#0Matrix_6@3_select_6 0 18.446fF
C95 select_7#0Matrix_6@3_select_7 0 18.446fF
** Extracted Parasitic Resistors ***
R0 select_0 select_0#0Matrix_6@3_select_0 8.102
R1 reset_1 reset_1#0Matrix_6@3_reset_1 8.102
R2 select_1 select_1#0Matrix_6@3_select_1 8.102
R3 reset_2 reset_2#0Matrix_6@3_reset_2 8.102
R4 select_2 select_2#0Matrix_6@3_select_2 8.102
R5 reset_3 reset_3#0Matrix_6@3_reset_3 8.102
R6 select_3 select_3#0Matrix_6@3_select_3 8.102
R7 reset_4 reset_4#0Matrix_6@3_reset_4 8.102
R8 select_4 select_4#0Matrix_6@3_select_4 8.102
R9 reset_5 reset_5#0Matrix_6@3_reset_5 8.102
R10 select_5 select_5#0Matrix_6@3_select_5 8.102
R11 reset_6 reset_6#0Matrix_6@3_reset_6 8.102
R12 select_6 select_6#0Matrix_6@3_select_6 8.102
R13 reset_7 reset_7#0Matrix_6@3_reset_7 8.102
R14 out_0#0Matrix_6@2_out_0 out_0 8.083
R15 out_1#0Matrix_6@2_out_1 out_1 8.083
R16 out_2#0Matrix_6@2_out_2 out_2 8.083
R17 out_3#0Matrix_6@2_out_3 out_3 8.083
R18 out_4#0Matrix_6@2_out_4 out_4 8.083
R19 out_5#0Matrix_6@2_out_5 out_5 8.083
R20 out_6#0Matrix_6@2_out_6 out_6 8.083
R21 out_9#0Matrix_6@3_out_1 out_9 8.083
R22 out_10#0Matrix_6@3_out_2 out_10 8.083
R23 out_11#0Matrix_6@3_out_3 out_11 8.083
R24 out_12#0Matrix_6@3_out_4 out_12 8.083
R25 out_13#0Matrix_6@3_out_5 out_13 8.083
R26 out_14#0Matrix_6@3_out_6 out_14 8.083
R27 out_15#0Matrix_6@3_out_7 out_15 8.083
R28 select_7 select_7#0Matrix_6@3_select_7 8.102
R29 reset_8 reset_8#0Matrix_6@1_reset_0 8.102
R30 out_8#0Matrix_6@3_out_0 out_8 8.083
R31 select_8 select_8#0Matrix_6@1_select_0 8.102
R32 reset_9 reset_9#0Matrix_6@1_reset_1 8.102
R33 select_9 select_9#0Matrix_6@1_select_1 8.102
R34 reset_10 reset_10#0Matrix_6@1_reset_2 8.102
R35 select_10 select_10#0Matrix_6@1_select_2 8.102
R36 reset_11 reset_11#0Matrix_6@1_reset_3 8.102
R37 select_11 select_11#0Matrix_6@1_select_3 8.102
R38 reset_12 reset_12#0Matrix_6@1_reset_4 8.102
R39 select_12 select_12#0Matrix_6@1_select_4 8.102
R40 reset_13 reset_13#0Matrix_6@1_reset_5 8.102
R41 select_13 select_13#0Matrix_6@1_select_5 8.102
R42 reset_14 reset_14#0Matrix_6@1_reset_6 8.102
R43 select_14 select_14#0Matrix_6@1_select_6 8.102
R44 reset_15 reset_15#0Matrix_6@1_reset_7 8.102
R45 select_15 select_15#0Matrix_6@1_select_7 8.102
R46 out_7#0Matrix_6@2_out_7 out_7 8.083
R47 reset_0 reset_0#0Matrix_6@3_reset_0 8.102
.ENDS pixel__Matrix_256

*** SUBCIRCUIT pixel__Matrix_1024 FROM CELL Matrix_1024{lay}
.SUBCKT pixel__Matrix_1024 gnd out_0 out_1 out_10 out_11 out_12 out_13 out_14 out_15 out_16 out_17 out_18 out_19 out_2 out_20 out_21 out_22 out_23 out_24 out_25 out_26 out_27 out_28 out_29 out_3 out_30 out_31 out_4 out_5 out_6 out_7 out_8 out_9 reset_0 reset_1 reset_10 reset_11 reset_12 reset_13 reset_14 reset_15 reset_16 reset_17 reset_18 reset_19 reset_2 reset_20 reset_21 reset_22 reset_23 reset_24 reset_25 reset_26 reset_27 reset_28 reset_29 reset_3 reset_30 reset_31 reset_4 reset_5 reset_6 reset_7 
+reset_8 reset_9 select_0 select_1 select_10 select_11 select_12 select_13 select_14 select_15 select_16 select_17 select_18 select_19 select_2 select_20 select_21 select_22 select_23 select_24 select_25 select_26 select_27 select_28 select_29 select_3 select_30 select_31 select_4 select_5 select_6 select_7 select_8 select_9 vdd vdd_reset
XMatrix_2@0 gnd out_0 out_1 out_10 out_11 out_12 out_13 out_14 out_15 out_2 out_3 out_4 out_5 out_6 out_7 out_8 out_9 reset_16 reset_17 reset_26 reset_27 reset_28 reset_29 reset_30 reset_31 reset_18 reset_19 reset_20 reset_21 reset_22 reset_23 reset_24 reset_25 select_16 select_17 select_26 select_27 select_28 select_29 select_30 select_31 select_18 select_19 select_20 select_21 select_22 select_23 select_24 select_25 vdd vdd_reset pixel__Matrix_256
XMatrix_2@1 gnd out_16 out_17 out_26 out_27 out_28 out_29 out_30 out_31 out_18 out_19 out_20 out_21 out_22 out_23 out_24 out_25 reset_16#0Matrix_2@1_reset_0 reset_17#0Matrix_2@1_reset_1 reset_26#0Matrix_2@1_reset_10 reset_27#0Matrix_2@1_reset_11 reset_28#0Matrix_2@1_reset_12 reset_29#0Matrix_2@1_reset_13 reset_30#0Matrix_2@1_reset_14 reset_31#0Matrix_2@1_reset_15 reset_18#0Matrix_2@1_reset_2 reset_19#0Matrix_2@1_reset_3 reset_20#0Matrix_2@1_reset_4 reset_21#0Matrix_2@1_reset_5 reset_22#0Matrix_2@1_reset_6 
+reset_23#0Matrix_2@1_reset_7 reset_24#0Matrix_2@1_reset_8 reset_25#0Matrix_2@1_reset_9 select_16#0Matrix_2@1_select_0 select_17#0Matrix_2@1_select_1 select_26#0Matrix_2@1_select_10 select_27#0Matrix_2@1_select_11 select_28#0Matrix_2@1_select_12 select_29#0Matrix_2@1_select_13 select_30#0Matrix_2@1_select_14 select_31#0Matrix_2@1_select_15 select_18#0Matrix_2@1_select_2 select_19#0Matrix_2@1_select_3 select_20#0Matrix_2@1_select_4 select_21#0Matrix_2@1_select_5 select_22#0Matrix_2@1_select_6 
+select_23#0Matrix_2@1_select_7 select_24#0Matrix_2@1_select_8 select_25#0Matrix_2@1_select_9 vdd vdd_reset pixel__Matrix_256
XMatrix_2@2 gnd out_0#0Matrix_2@2_out_0 out_1#0Matrix_2@2_out_1 out_10#0Matrix_2@2_out_10 out_11#0Matrix_2@2_out_11 out_12#0Matrix_2@2_out_12 out_13#0Matrix_2@2_out_13 out_14#0Matrix_2@2_out_14 out_15#0Matrix_2@2_out_15 out_2#0Matrix_2@2_out_2 out_3#0Matrix_2@2_out_3 out_4#0Matrix_2@2_out_4 out_5#0Matrix_2@2_out_5 out_6#0Matrix_2@2_out_6 out_7#0Matrix_2@2_out_7 out_8#0Matrix_2@2_out_8 out_9#0Matrix_2@2_out_9 reset_0 reset_1 reset_10 reset_11 reset_12 reset_13 reset_14 reset_15 reset_2 reset_3 reset_4 
+reset_5 reset_6 reset_7 reset_8 reset_9 select_0 select_1 select_10 select_11 select_12 select_13 select_14 select_15 select_2 select_3 select_4 select_5 select_6 select_7 select_8 select_9 vdd vdd_reset pixel__Matrix_256
XMatrix_2@3 gnd out_16#0Matrix_2@3_out_0 out_17#0Matrix_2@3_out_1 out_26#0Matrix_2@3_out_10 out_27#0Matrix_2@3_out_11 out_28#0Matrix_2@3_out_12 out_29#0Matrix_2@3_out_13 out_30#0Matrix_2@3_out_14 out_31#0Matrix_2@3_out_15 out_18#0Matrix_2@3_out_2 out_19#0Matrix_2@3_out_3 out_20#0Matrix_2@3_out_4 out_21#0Matrix_2@3_out_5 out_22#0Matrix_2@3_out_6 out_23#0Matrix_2@3_out_7 out_24#0Matrix_2@3_out_8 out_25#0Matrix_2@3_out_9 reset_0#0Matrix_2@3_reset_0 reset_1#0Matrix_2@3_reset_1 reset_10#0Matrix_2@3_reset_10 
+reset_11#0Matrix_2@3_reset_11 reset_12#0Matrix_2@3_reset_12 reset_13#0Matrix_2@3_reset_13 reset_14#0Matrix_2@3_reset_14 reset_15#0Matrix_2@3_reset_15 reset_2#0Matrix_2@3_reset_2 reset_3#0Matrix_2@3_reset_3 reset_4#0Matrix_2@3_reset_4 reset_5#0Matrix_2@3_reset_5 reset_6#0Matrix_2@3_reset_6 reset_7#0Matrix_2@3_reset_7 reset_8#0Matrix_2@3_reset_8 reset_9#0Matrix_2@3_reset_9 select_0#0Matrix_2@3_select_0 select_1#0Matrix_2@3_select_1 select_10#0Matrix_2@3_select_10 select_11#0Matrix_2@3_select_11 
+select_12#0Matrix_2@3_select_12 select_13#0Matrix_2@3_select_13 select_14#0Matrix_2@3_select_14 select_15#0Matrix_2@3_select_15 select_2#0Matrix_2@3_select_2 select_3#0Matrix_2@3_select_3 select_4#0Matrix_2@3_select_4 select_5#0Matrix_2@3_select_5 select_6#0Matrix_2@3_select_6 select_7#0Matrix_2@3_select_7 select_8#0Matrix_2@3_select_8 select_9#0Matrix_2@3_select_9 vdd vdd_reset pixel__Matrix_256
** Extracted Parasitic Capacitors ***
C0 out_0 0 30.331fF
C1 out_1 0 30.331fF
C2 out_2 0 30.331fF
C3 out_3 0 30.331fF
C4 out_4 0 30.331fF
C5 out_5 0 30.331fF
C6 out_6 0 30.331fF
C7 out_7 0 30.331fF
C8 out_8 0 30.331fF
C9 out_9 0 30.331fF
C10 out_10 0 30.331fF
C11 out_11 0 30.331fF
C12 out_12 0 30.331fF
C13 out_13 0 30.331fF
C14 out_14 0 30.331fF
C15 out_15 0 30.331fF
C16 reset_16 0 24.579fF
C17 reset_17 0 24.579fF
C18 reset_18 0 24.579fF
C19 reset_19 0 24.579fF
C20 reset_20 0 24.579fF
C21 reset_21 0 24.579fF
C22 reset_22 0 24.579fF
C23 reset_23 0 24.579fF
C24 reset_24 0 24.579fF
C25 reset_25 0 24.579fF
C26 reset_26 0 24.579fF
C27 reset_27 0 24.579fF
C28 reset_28 0 24.579fF
C29 reset_29 0 24.579fF
C30 reset_30 0 24.579fF
C31 reset_31 0 24.579fF
C32 select_16 0 24.579fF
C33 select_17 0 24.579fF
C34 select_18 0 24.579fF
C35 select_19 0 24.579fF
C36 select_20 0 24.579fF
C37 select_21 0 24.579fF
C38 select_22 0 24.579fF
C39 select_23 0 24.579fF
C40 select_24 0 24.579fF
C41 select_25 0 24.579fF
C42 select_26 0 24.579fF
C43 select_27 0 24.579fF
C44 select_28 0 24.579fF
C45 select_29 0 24.579fF
C46 select_30 0 24.579fF
C47 select_31 0 24.579fF
C48 out_16 0 30.331fF
C49 out_17 0 30.331fF
C50 out_18 0 30.331fF
C51 out_19 0 30.331fF
C52 out_20 0 30.331fF
C53 out_21 0 30.331fF
C54 out_22 0 30.331fF
C55 out_23 0 30.331fF
C56 out_24 0 30.331fF
C57 out_25 0 30.331fF
C58 out_26 0 30.331fF
C59 out_27 0 30.331fF
C60 out_28 0 30.331fF
C61 out_29 0 30.331fF
C62 out_30 0 30.331fF
C63 out_31 0 30.331fF
C64 reset_16#0Matrix_2@1_reset_0 0 24.579fF
C65 reset_17#0Matrix_2@1_reset_1 0 24.579fF
C66 reset_18#0Matrix_2@1_reset_2 0 24.579fF
C67 reset_19#0Matrix_2@1_reset_3 0 24.579fF
C68 reset_20#0Matrix_2@1_reset_4 0 24.579fF
C69 reset_21#0Matrix_2@1_reset_5 0 24.579fF
C70 reset_22#0Matrix_2@1_reset_6 0 24.579fF
C71 reset_23#0Matrix_2@1_reset_7 0 24.579fF
C72 reset_24#0Matrix_2@1_reset_8 0 24.579fF
C73 reset_25#0Matrix_2@1_reset_9 0 24.579fF
C74 reset_26#0Matrix_2@1_reset_10 0 24.579fF
C75 reset_27#0Matrix_2@1_reset_11 0 24.579fF
C76 reset_28#0Matrix_2@1_reset_12 0 24.579fF
C77 reset_29#0Matrix_2@1_reset_13 0 24.579fF
C78 reset_30#0Matrix_2@1_reset_14 0 24.579fF
C79 reset_31#0Matrix_2@1_reset_15 0 24.579fF
C80 select_16#0Matrix_2@1_select_0 0 24.579fF
C81 select_17#0Matrix_2@1_select_1 0 24.579fF
C82 select_18#0Matrix_2@1_select_2 0 24.579fF
C83 select_19#0Matrix_2@1_select_3 0 24.579fF
C84 select_20#0Matrix_2@1_select_4 0 24.579fF
C85 select_21#0Matrix_2@1_select_5 0 24.579fF
C86 select_22#0Matrix_2@1_select_6 0 24.579fF
C87 select_23#0Matrix_2@1_select_7 0 24.579fF
C88 select_24#0Matrix_2@1_select_8 0 24.579fF
C89 select_25#0Matrix_2@1_select_9 0 24.579fF
C90 select_26#0Matrix_2@1_select_10 0 24.579fF
C91 select_27#0Matrix_2@1_select_11 0 24.579fF
C92 select_28#0Matrix_2@1_select_12 0 24.579fF
C93 select_29#0Matrix_2@1_select_13 0 24.579fF
C94 select_30#0Matrix_2@1_select_14 0 24.579fF
C95 select_31#0Matrix_2@1_select_15 0 24.579fF
C96 out_0#0Matrix_2@2_out_0 0 30.331fF
C97 out_1#0Matrix_2@2_out_1 0 30.331fF
C98 out_2#0Matrix_2@2_out_2 0 30.331fF
C99 out_3#0Matrix_2@2_out_3 0 30.331fF
C100 out_4#0Matrix_2@2_out_4 0 30.331fF
C101 out_5#0Matrix_2@2_out_5 0 30.331fF
C102 out_6#0Matrix_2@2_out_6 0 30.331fF
C103 out_7#0Matrix_2@2_out_7 0 30.331fF
C104 out_8#0Matrix_2@2_out_8 0 30.331fF
C105 out_9#0Matrix_2@2_out_9 0 30.331fF
C106 out_10#0Matrix_2@2_out_10 0 30.331fF
C107 out_11#0Matrix_2@2_out_11 0 30.331fF
C108 out_12#0Matrix_2@2_out_12 0 30.331fF
C109 out_13#0Matrix_2@2_out_13 0 30.331fF
C110 out_14#0Matrix_2@2_out_14 0 30.331fF
C111 out_15#0Matrix_2@2_out_15 0 30.331fF
C112 reset_0 0 24.579fF
C113 reset_1 0 24.579fF
C114 reset_2 0 24.579fF
C115 reset_3 0 24.579fF
C116 reset_4 0 24.579fF
C117 reset_5 0 24.579fF
C118 reset_6 0 24.579fF
C119 reset_7 0 24.579fF
C120 reset_8 0 24.579fF
C121 reset_9 0 24.579fF
C122 reset_10 0 24.579fF
C123 reset_11 0 24.579fF
C124 reset_12 0 24.579fF
C125 reset_13 0 24.579fF
C126 reset_14 0 24.579fF
C127 reset_15 0 24.579fF
C128 select_0 0 24.579fF
C129 select_1 0 24.579fF
C130 select_2 0 24.579fF
C131 select_3 0 24.579fF
C132 select_4 0 24.579fF
C133 select_5 0 24.579fF
C134 select_6 0 24.579fF
C135 select_7 0 24.579fF
C136 select_8 0 24.579fF
C137 select_9 0 24.579fF
C138 select_10 0 24.579fF
C139 select_11 0 24.579fF
C140 select_12 0 24.579fF
C141 select_13 0 24.579fF
C142 select_14 0 24.579fF
C143 select_15 0 24.579fF
C144 out_16#0Matrix_2@3_out_0 0 30.331fF
C145 out_17#0Matrix_2@3_out_1 0 30.331fF
C146 out_18#0Matrix_2@3_out_2 0 30.331fF
C147 out_19#0Matrix_2@3_out_3 0 30.331fF
C148 out_20#0Matrix_2@3_out_4 0 30.331fF
C149 out_21#0Matrix_2@3_out_5 0 30.331fF
C150 out_22#0Matrix_2@3_out_6 0 30.331fF
C151 out_23#0Matrix_2@3_out_7 0 30.331fF
C152 out_24#0Matrix_2@3_out_8 0 30.331fF
C153 out_25#0Matrix_2@3_out_9 0 30.331fF
C154 out_26#0Matrix_2@3_out_10 0 30.331fF
C155 out_27#0Matrix_2@3_out_11 0 30.331fF
C156 out_28#0Matrix_2@3_out_12 0 30.331fF
C157 out_29#0Matrix_2@3_out_13 0 30.331fF
C158 out_30#0Matrix_2@3_out_14 0 30.331fF
C159 out_31#0Matrix_2@3_out_15 0 30.331fF
C160 reset_0#0Matrix_2@3_reset_0 0 24.579fF
C161 reset_1#0Matrix_2@3_reset_1 0 24.579fF
C162 reset_2#0Matrix_2@3_reset_2 0 24.579fF
C163 reset_3#0Matrix_2@3_reset_3 0 24.579fF
C164 reset_4#0Matrix_2@3_reset_4 0 24.579fF
C165 reset_5#0Matrix_2@3_reset_5 0 24.579fF
C166 reset_6#0Matrix_2@3_reset_6 0 24.579fF
C167 reset_7#0Matrix_2@3_reset_7 0 24.579fF
C168 reset_8#0Matrix_2@3_reset_8 0 24.579fF
C169 reset_9#0Matrix_2@3_reset_9 0 24.579fF
C170 reset_10#0Matrix_2@3_reset_10 0 24.579fF
C171 reset_11#0Matrix_2@3_reset_11 0 24.579fF
C172 reset_12#0Matrix_2@3_reset_12 0 24.579fF
C173 reset_13#0Matrix_2@3_reset_13 0 24.579fF
C174 reset_14#0Matrix_2@3_reset_14 0 24.579fF
C175 reset_15#0Matrix_2@3_reset_15 0 24.579fF
C176 select_0#0Matrix_2@3_select_0 0 24.579fF
C177 select_1#0Matrix_2@3_select_1 0 24.579fF
C178 select_2#0Matrix_2@3_select_2 0 24.579fF
C179 select_3#0Matrix_2@3_select_3 0 24.579fF
C180 select_4#0Matrix_2@3_select_4 0 24.579fF
C181 select_5#0Matrix_2@3_select_5 0 24.579fF
C182 select_6#0Matrix_2@3_select_6 0 24.579fF
C183 select_7#0Matrix_2@3_select_7 0 24.579fF
C184 select_8#0Matrix_2@3_select_8 0 24.579fF
C185 select_9#0Matrix_2@3_select_9 0 24.579fF
C186 select_10#0Matrix_2@3_select_10 0 24.579fF
C187 select_11#0Matrix_2@3_select_11 0 24.579fF
C188 select_12#0Matrix_2@3_select_12 0 24.579fF
C189 select_13#0Matrix_2@3_select_13 0 24.579fF
C190 select_14#0Matrix_2@3_select_14 0 24.579fF
C191 select_15#0Matrix_2@3_select_15 0 24.579fF
** Extracted Parasitic Resistors ***
R0 reset_0 reset_0##0 8.097
C192 reset_0##0 0 24.579fF
R1 reset_0##0 reset_0#0Matrix_2@3_reset_0 8.097
R2 select_0 select_0##0 8.097
C193 select_0##0 0 24.579fF
R3 select_0##0 select_0#0Matrix_2@3_select_0 8.097
R4 reset_1 reset_1##0 8.097
C194 reset_1##0 0 24.579fF
R5 reset_1##0 reset_1#0Matrix_2@3_reset_1 8.097
R6 select_1 select_1##0 8.097
C195 select_1##0 0 24.579fF
R7 select_1##0 select_1#0Matrix_2@3_select_1 8.097
R8 reset_2 reset_2##0 8.097
C196 reset_2##0 0 24.579fF
R9 reset_2##0 reset_2#0Matrix_2@3_reset_2 8.097
R10 select_2 select_2##0 8.097
C197 select_2##0 0 24.579fF
R11 select_2##0 select_2#0Matrix_2@3_select_2 8.097
R12 reset_3 reset_3##0 8.097
C198 reset_3##0 0 24.579fF
R13 reset_3##0 reset_3#0Matrix_2@3_reset_3 8.097
R14 select_3 select_3##0 8.097
C199 select_3##0 0 24.579fF
R15 select_3##0 select_3#0Matrix_2@3_select_3 8.097
R16 reset_4 reset_4##0 8.097
C200 reset_4##0 0 24.579fF
R17 reset_4##0 reset_4#0Matrix_2@3_reset_4 8.097
R18 select_4 select_4##0 8.097
C201 select_4##0 0 24.579fF
R19 select_4##0 select_4#0Matrix_2@3_select_4 8.097
R20 reset_5 reset_5##0 8.097
C202 reset_5##0 0 24.579fF
R21 reset_5##0 reset_5#0Matrix_2@3_reset_5 8.097
R22 select_5 select_5##0 8.097
C203 select_5##0 0 24.579fF
R23 select_5##0 select_5#0Matrix_2@3_select_5 8.097
R24 reset_6 reset_6##0 8.097
C204 reset_6##0 0 24.579fF
R25 reset_6##0 reset_6#0Matrix_2@3_reset_6 8.097
R26 select_6 select_6##0 8.097
C205 select_6##0 0 24.579fF
R27 select_6##0 select_6#0Matrix_2@3_select_6 8.097
R28 reset_7 reset_7##0 8.097
C206 reset_7##0 0 24.579fF
R29 reset_7##0 reset_7#0Matrix_2@3_reset_7 8.097
R30 select_7 select_7##0 8.097
C207 select_7##0 0 24.579fF
R31 select_7##0 select_7#0Matrix_2@3_select_7 8.097
R32 reset_8 reset_8##0 8.097
C208 reset_8##0 0 24.579fF
R33 reset_8##0 reset_8#0Matrix_2@3_reset_8 8.097
R34 select_8 select_8##0 8.097
C209 select_8##0 0 24.579fF
R35 select_8##0 select_8#0Matrix_2@3_select_8 8.097
R36 reset_9 reset_9##0 8.097
C210 reset_9##0 0 24.579fF
R37 reset_9##0 reset_9#0Matrix_2@3_reset_9 8.097
R38 select_9 select_9##0 8.097
C211 select_9##0 0 24.579fF
R39 select_9##0 select_9#0Matrix_2@3_select_9 8.097
R40 reset_10 reset_10##0 8.097
C212 reset_10##0 0 24.579fF
R41 reset_10##0 reset_10#0Matrix_2@3_reset_10 8.097
R42 select_10 select_10##0 8.097
C213 select_10##0 0 24.579fF
R43 select_10##0 select_10#0Matrix_2@3_select_10 8.097
R44 reset_11 reset_11##0 8.097
C214 reset_11##0 0 24.579fF
R45 reset_11##0 reset_11#0Matrix_2@3_reset_11 8.097
R46 select_11 select_11##0 8.097
C215 select_11##0 0 24.579fF
R47 select_11##0 select_11#0Matrix_2@3_select_11 8.097
R48 reset_12 reset_12##0 8.097
C216 reset_12##0 0 24.579fF
R49 reset_12##0 reset_12#0Matrix_2@3_reset_12 8.097
R50 select_12 select_12##0 8.097
C217 select_12##0 0 24.579fF
R51 select_12##0 select_12#0Matrix_2@3_select_12 8.097
R52 reset_13 reset_13##0 8.097
C218 reset_13##0 0 24.579fF
R53 reset_13##0 reset_13#0Matrix_2@3_reset_13 8.097
R54 select_13 select_13##0 8.097