Version 4
SHEET 1 964 680
WIRE 240 -368 240 -400
WIRE 416 -368 240 -368
WIRE 416 -352 416 -368
WIRE 368 -272 288 -272
WIRE 416 -224 416 -256
WIRE 288 -144 288 -272
WIRE 288 -144 64 -144
WIRE 368 -144 288 -144
WIRE 416 -112 416 -128
WIRE 288 -32 288 -144
WIRE 368 -32 288 -32
WIRE 64 0 64 -144
WIRE 416 16 416 -16
WIRE 288 96 288 -32
WIRE 368 96 288 96
WIRE 416 160 416 112
WIRE 288 240 288 96
WIRE 368 240 288 240
FLAG 64 80 0
FLAG 240 -400 vd
FLAG 416 256 0
FLAG 416 208 0
FLAG 416 64 0
FLAG 416 -64 0
FLAG 416 -176 0
FLAG -128 80 0
FLAG -128 0 vd
FLAG 416 -304 0
SYMBOL voltage 64 -16 R0
SYMATTR InstName V1
SYMATTR Value 1.5
SYMBOL nmos4 368 160 R0
SYMATTR InstName M5
SYMATTR Value2 l='Lbias' w='Wbias' ad='Wbias*Ld' as='Wbias*Ld' pd='2*Wbias+2*Ld' ps='2*Wbias+2*Ld' m=1
SYMBOL nmos4 368 16 R0
SYMATTR InstName M6
SYMATTR Value2 l='Lbias' w='Wbias' ad='Wbias*Ld' as='Wbias*Ld' pd='2*Wbias+2*Ld' ps='2*Wbias+2*Ld' m=1
SYMBOL nmos4 368 -112 R0
SYMATTR InstName M7
SYMATTR Value2 l='Lbias' w='Wbias' ad='Wbias*Ld' as='Wbias*Ld' pd='2*Wbias+2*Ld' ps='2*Wbias+2*Ld' m=1
SYMBOL nmos4 368 -224 R0
SYMATTR InstName M8
SYMATTR Value2 l='Lbias' w='Wbias' ad='Wbias*Ld' as='Wbias*Ld' pd='2*Wbias+2*Ld' ps='2*Wbias+2*Ld' m=1
SYMBOL voltage -128 -16 R0
SYMATTR InstName V2
SYMATTR Value 1.5
SYMBOL nmos4 368 -352 R0
SYMATTR InstName M10
SYMATTR Value2 l='Lbias' w='Wbias' ad='Wbias*Ld' as='Wbias*Ld' pd='2*Wbias+2*Ld' ps='2*Wbias+2*Ld' m=1
TEXT 552 -192 Left 2 !.include C5_models.txt
TEXT 552 -160 Left 2 !.param Lbias = 3.9u, Wbias = 5.4u
TEXT 552 -128 Left 2 !.dc V2 0 5 1m
TEXT 664 -104 Left 2 !.param Ld = 1.2u
