Version 4
SHEET 1 1096 1028
WIRE -800 -480 -832 -480
WIRE -640 -480 -656 -480
WIRE -464 -480 -480 -480
WIRE -288 -480 -320 -480
WIRE -112 -480 -128 -480
WIRE 80 -480 32 -480
WIRE -800 -320 -832 -320
WIRE -640 -320 -656 -320
WIRE -464 -320 -480 -320
WIRE -288 -320 -320 -320
WIRE -112 -320 -128 -320
WIRE 80 -320 32 -320
WIRE -1216 -192 -1216 -208
WIRE -1216 -96 -1216 -112
WIRE -1056 -96 -1056 -112
WIRE -960 -96 -960 -112
WIRE -864 -96 -864 -112
WIRE -1072 80 -1072 64
WIRE -976 80 -976 64
WIRE -880 80 -880 64
WIRE -256 80 -304 80
WIRE -752 112 -784 112
WIRE -256 112 -304 112
WIRE -128 128 -160 128
WIRE 96 128 16 128
WIRE -752 144 -784 144
WIRE -624 144 -640 144
WIRE -464 144 -480 144
WIRE -256 144 -304 144
WIRE 96 144 96 128
WIRE -752 176 -784 176
WIRE -256 176 -304 176
WIRE 96 240 96 208
FLAG -1056 -96 0
FLAG -1056 -192 in1
FLAG -960 -96 0
FLAG -960 -192 in2
FLAG -864 -96 0
FLAG -864 -192 in3
FLAG -464 144 out1
FLAG -784 112 in1
FLAG -784 144 in2
FLAG -784 176 in3
FLAG -1216 -96 0
FLAG -1216 -208 Vdd
FLAG -832 -480 in1
FLAG -640 -480 NegIn1
FLAG -480 -480 in2
FLAG -288 -480 NegIn2
FLAG -128 -480 in3
FLAG 80 -480 NegIn3
FLAG -1072 80 0
FLAG -1072 -16 in4
FLAG -976 80 0
FLAG -976 -16 in5
FLAG -880 80 0
FLAG -880 -16 in6
FLAG -304 80 in4
FLAG -304 112 in5
FLAG -304 144 in6
FLAG -304 176 out1
FLAG 96 128 out_real_1
FLAG -832 -320 in4
FLAG -640 -320 NegIn4
FLAG -480 -320 in5
FLAG -288 -320 NegIn5
FLAG -128 -320 in6
FLAG 80 -320 NegIn6
FLAG 96 240 0
SYMBOL voltage -1056 -208 R0
SYMATTR InstName V2
SYMATTR Value 5
SYMBOL voltage -960 -208 R0
WINDOW 123 0 0 Left 2
WINDOW 39 0 0 Left 2
SYMATTR InstName V3
SYMATTR Value 5
SYMBOL voltage -864 -208 R0
SYMATTR InstName V4
SYMATTR Value 5
SYMBOL voltage -1216 -208 R0
SYMATTR InstName V1
SYMATTR Value 5
SYMBOL INV -752 -480 R0
SYMATTR InstName X9
SYMBOL INV -416 -480 R0
SYMATTR InstName X10
SYMBOL INV -64 -480 R0
SYMATTR InstName X11
SYMBOL voltage -1072 -32 R0
SYMATTR InstName V5
SYMATTR Value 5
SYMBOL voltage -976 -32 R0
WINDOW 123 0 0 Left 2
WINDOW 39 0 0 Left 2
SYMATTR InstName V6
SYMATTR Value 5
SYMBOL voltage -880 -32 R0
SYMATTR InstName V7
SYMATTR Value 5
SYMBOL INV -752 -320 R0
SYMATTR InstName X21
SYMBOL INV -416 -320 R0
SYMATTR InstName X22
SYMBOL INV -64 -320 R0
SYMATTR InstName X23
SYMBOL cap 80 144 R0
SYMATTR InstName C2
SYMATTR Value 5p
SYMBOL NAND4 -272 128 R0
SYMATTR SpiceLine Wnmos1 = 24u Wpmos1 = 12u
SYMATTR InstName X20
SYMBOL INV -80 128 R0
SYMATTR InstName X24
SYMATTR SpiceLine Wnmos1 = 24u Wpmos1 = 48u
SYMBOL NAND3 -720 144 R0
SYMATTR InstName X1
SYMATTR SpiceLine Wnmos1 = 18 Wpmos1 = 12u
SYMBOL INV -576 144 R0
WINDOW 0 -35 -81 Left 2
SYMATTR InstName X12
SYMATTR SpiceLine Wnmos1 = 6u Wpmos1 = 12u
TEXT 232 -328 Left 2 !.include C5_models.txt
TEXT 232 -288 Left 2 !.tran 1u
TEXT 240 -424 Left 2 !.param Lmin = 0.6u
TEXT 232 -248 Left 2 !.ic V(out1) = 0
TEXT -728 208 Left 2 ;555
TEXT 232 -216 Left 2 !.ic V(out_real_1) = 0
