Version 4
SHEET 1 936 852
WIRE -576 96 -576 48
WIRE -544 96 -576 96
WIRE -384 96 -384 48
WIRE -384 96 -400 96
WIRE -192 96 -192 48
WIRE -176 96 -192 96
WIRE -544 144 -544 96
WIRE -544 144 -576 144
WIRE -384 144 -384 96
WIRE -384 144 -400 144
WIRE -176 144 -176 96
WIRE -176 144 -192 144
WIRE -624 176 -672 176
WIRE -448 176 -480 176
WIRE -240 176 -288 176
WIRE -576 224 -576 192
WIRE -400 224 -400 192
WIRE -400 224 -576 224
WIRE -192 224 -192 192
WIRE -192 224 -400 224
WIRE -112 224 -192 224
WIRE -192 272 -192 224
WIRE -672 352 -672 176
WIRE -672 352 -752 352
WIRE -240 352 -672 352
WIRE 48 400 48 384
WIRE -192 416 -192 368
WIRE -480 496 -480 176
WIRE -480 496 -752 496
WIRE -240 496 -480 496
WIRE 48 496 48 480
WIRE -192 560 -192 512
WIRE -288 640 -288 176
WIRE -288 640 -752 640
WIRE -240 640 -288 640
WIRE -192 704 -192 656
FLAG -384 48 Vdd
FLAG -192 48 Vdd
FLAG -576 48 Vdd
FLAG -192 608 0
FLAG -192 464 0
FLAG -192 320 0
FLAG -112 224 out
IOPIN -112 224 Out
FLAG -752 352 a
IOPIN -752 352 In
FLAG -752 496 b
IOPIN -752 496 In
FLAG -752 640 c
IOPIN -752 640 In
FLAG -192 704 0
FLAG 48 496 0
FLAG 48 384 Vdd
SYMBOL pmos4 -448 96 R0
SYMATTR InstName M2
SYMATTR Value2 l='Lmin' w='Wpmos1' ad='Lmin*Wpmos1' as='Lmin*Wpmos1' pd='2*(Lmin+Wpmos1)' ps='2*(Lmin+Wpmos1)' m=1
SYMBOL pmos4 -240 96 R0
SYMATTR InstName M4
SYMATTR Value2 l='Lmin' w='Wpmos1' ad='Lmin*Wpmos1' as='Lmin*Wpmos1' pd='2*(Lmin+Wpmos1)' ps='2*(Lmin+Wpmos1)' m=1
SYMBOL pmos4 -624 96 R0
SYMATTR InstName M1
SYMATTR Value2 l='Lmin' w='Wpmos1' ad='Lmin*Wpmos1' as='Lmin*Wpmos1' pd='2*(Lmin+Wpmos1)' ps='2*(Lmin+Wpmos1)' m=1
SYMBOL nmos4 -240 272 R0
SYMATTR InstName M3
SYMATTR Value2 l='Lmin' w='Wnmos1' ad='Lmin*Wnmos1' as='Lmin*Wnmos1' pd='2*(Lmin+Wnmos1)' ps='2*(Lmin+Wnmos1)' m=1
SYMBOL nmos4 -240 416 R0
SYMATTR InstName M5
SYMATTR Value2 l='Lmin' w='Wnmos1' ad='Lmin*Wnmos1' as='Lmin*Wnmos1' pd='2*(Lmin+Wnmos1)' ps='2*(Lmin+Wnmos1)' m=1
SYMBOL nmos4 -240 560 R0
SYMATTR InstName M7
SYMATTR Value2 l='Lmin' w='Wnmos1' ad='Lmin*Wnmos1' as='Lmin*Wnmos1' pd='2*(Lmin+Wnmos1)' ps='2*(Lmin+Wnmos1)' m=1
SYMBOL voltage 48 384 R0
SYMATTR InstName V1
SYMATTR Value 5
TEXT 8 224 Left 2 !.include C5_models.txt
TEXT 8 152 Left 2 !.param Lmin = 0.6u
