Version 4
SHEET 1 1732 852
WIRE -624 -512 -624 -528
WIRE -208 -512 -208 -528
WIRE -624 -416 -624 -432
WIRE -208 -416 -208 -432
WIRE -624 -352 -624 -368
WIRE -624 -256 -624 -272
WIRE -816 -128 -816 -144
WIRE -400 -128 -400 -144
WIRE -816 -32 -816 -48
WIRE -400 -32 -400 -48
WIRE 1296 -32 1296 -80
WIRE 1328 -32 1296 -32
WIRE -32 0 -32 -48
WIRE 0 0 -32 0
WIRE 1328 16 1328 -32
WIRE 1328 16 1296 16
WIRE 0 48 0 0
WIRE 0 48 -32 48
WIRE 1056 144 1056 112
WIRE 1152 144 1104 144
WIRE -272 176 -272 144
WIRE -176 176 -224 176
WIRE 560 176 528 176
WIRE 608 176 608 144
WIRE 704 176 656 176
WIRE 1472 192 1472 144
WIRE 1472 192 1456 192
WIRE -768 208 -800 208
WIRE -720 208 -720 176
WIRE -624 208 -672 208
WIRE 144 224 144 176
WIRE 144 224 128 224
WIRE 880 224 880 176
WIRE 880 224 864 224
WIRE 1088 224 1088 192
WIRE 1472 240 1472 192
WIRE 1472 240 1456 240
WIRE -448 256 -448 208
WIRE -448 256 -464 256
WIRE -240 256 -240 224
WIRE 640 256 640 224
WIRE 144 272 144 224
WIRE 144 272 128 272
WIRE 880 272 880 224
WIRE 880 272 864 272
WIRE 1408 272 1360 272
WIRE -688 288 -688 256
WIRE -448 304 -448 256
WIRE -448 304 -464 304
WIRE 80 304 32 304
WIRE 816 304 768 304
WIRE 1456 320 1456 288
WIRE 1664 320 1456 320
WIRE 1680 320 1664 320
WIRE -512 336 -560 336
WIRE 128 352 128 320
WIRE 240 352 128 352
WIRE 528 352 528 176
WIRE 528 352 240 352
WIRE 544 352 528 352
WIRE 704 352 704 176
WIRE 704 352 688 352
WIRE 768 352 768 304
WIRE 768 352 704 352
WIRE 864 352 864 320
WIRE 1008 352 1008 144
WIRE 1008 352 864 352
WIRE 1152 352 1152 144
WIRE 1296 352 1296 64
WIRE 1296 352 1152 352
WIRE 1360 352 1360 272
WIRE 1360 352 1296 352
WIRE 1456 352 1456 320
WIRE 864 368 864 352
WIRE -800 384 -800 208
WIRE -800 384 -848 384
WIRE -784 384 -800 384
WIRE -624 384 -624 208
WIRE -624 384 -640 384
WIRE -560 384 -560 336
WIRE -560 384 -624 384
WIRE -464 384 -464 352
WIRE -320 384 -320 176
WIRE -320 384 -464 384
WIRE -176 384 -176 176
WIRE -32 384 -32 96
WIRE -32 384 -176 384
WIRE 32 384 32 304
WIRE 32 384 -32 384
WIRE 128 384 128 352
WIRE -464 400 -464 384
WIRE 1568 400 1568 384
WIRE 240 432 240 416
WIRE 544 432 544 352
WIRE 560 432 544 432
WIRE 688 432 688 352
WIRE 688 432 656 432
WIRE 1360 432 1360 352
WIRE 1408 432 1360 432
WIRE 768 448 768 352
WIRE 816 448 768 448
WIRE 1008 448 1008 352
WIRE 1024 448 1008 448
WIRE 1152 448 1152 352
WIRE 1152 448 1120 448
WIRE -784 464 -784 384
WIRE -768 464 -784 464
WIRE -640 464 -640 384
WIRE -640 464 -672 464
WIRE 32 464 32 384
WIRE 80 464 32 464
WIRE 1456 464 1456 448
WIRE -560 480 -560 384
WIRE -512 480 -560 480
WIRE -320 480 -320 384
WIRE -304 480 -320 480
WIRE -176 480 -176 384
WIRE -176 480 -208 480
WIRE 128 496 128 480
WIRE 640 496 640 480
WIRE 1104 512 1104 496
WIRE -688 528 -688 512
WIRE -224 544 -224 528
WIRE 864 608 864 464
WIRE -464 640 -464 496
FLAG -448 208 Vdd
FLAG -208 -416 0
FLAG -208 -528 Vdd
FLAG -720 464 0
FLAG -720 176 Vdd
FLAG -848 384 D
IOPIN -848 384 In
FLAG -688 288 clk
IOPIN -688 288 In
FLAG -688 528 clkb
IOPIN -688 528 In
FLAG -464 448 0
FLAG -464 640 0
FLAG -256 480 0
FLAG -272 144 Vdd
FLAG -240 256 clkb
IOPIN -240 256 In
FLAG -224 544 clk
IOPIN -224 544 In
FLAG 144 176 Vdd
FLAG 128 432 0
FLAG 128 496 0
FLAG -32 -48 Vdd
FLAG -624 -256 0
FLAG -624 -368 D
FLAG -624 -416 0
FLAG -624 -528 reset
FLAG -80 80 reset
FLAG -400 -32 0
FLAG -400 -144 clkb
FLAG -816 -32 0
FLAG -816 -144 clk
FLAG 240 432 0
FLAG 880 176 Vdd
FLAG 608 432 0
FLAG 608 144 Vdd
FLAG 640 256 clk
IOPIN 640 256 In
FLAG 640 496 clkb
IOPIN 640 496 In
FLAG 864 416 0
FLAG 864 608 0
FLAG 1072 448 0
FLAG 1056 112 Vdd
FLAG 1088 224 clkb
IOPIN 1088 224 In
FLAG 1104 512 clk
IOPIN 1104 512 In
FLAG 1472 144 Vdd
FLAG 1456 400 0
FLAG 1456 464 0
FLAG 1664 320 Q
IOPIN 1664 320 Out
FLAG 1296 -80 Vdd
FLAG 1248 48 reset
SYMBOL pmos4 -512 256 R0
SYMATTR InstName M2
SYMATTR Value2 l='Lmin' w='Wpmos1' ad='Lmin*Wpmos1' as='Lmin*Wpmos1' pd='2*(Lmin+Wpmos1)' ps='2*(Lmin+Wpmos1)' m=1
SYMBOL pmos4 -768 256 R270
SYMATTR InstName M1
SYMATTR Value2 l='Lmin' w=12u ad='Lmin*Wpmos1' as='Lmin*Wpmos1' pd='2*(Lmin+Wpmos1)' ps='2*(Lmin+Wpmos1)' m=1
SYMBOL nmos4 -768 512 R270
SYMATTR InstName M3
SYMATTR Value2 l='Lmin' w=6u ad='Lmin*Wnmos1' as='Lmin*Wnmos1' pd='2*(Lmin+Wnmos1)' ps='2*(Lmin+Wnmos1)' m=1
SYMBOL nmos4 -512 400 R0
SYMATTR InstName M5
SYMATTR Value2 l='Lmin' w='Wnmos1' ad='Lmin*Wnmos1' as='Lmin*Wnmos1' pd='2*(Lmin+Wnmos1)' ps='2*(Lmin+Wnmos1)' m=1
SYMBOL voltage -208 -528 R0
SYMATTR InstName V1
SYMATTR Value 5
SYMBOL pmos4 -320 224 R270
SYMATTR InstName M8
SYMATTR Value2 l='Lmin' w=12u ad='Lmin*Wpmos1' as='Lmin*Wpmos1' pd='2*(Lmin+Wpmos1)' ps='2*(Lmin+Wpmos1)' m=1
SYMBOL nmos4 -304 528 R270
SYMATTR InstName M9
SYMATTR Value2 l='Lmin' w=6u ad='Lmin*Wnmos1' as='Lmin*Wnmos1' pd='2*(Lmin+Wnmos1)' ps='2*(Lmin+Wnmos1)' m=1
SYMBOL pmos4 80 224 R0
SYMATTR InstName M4
SYMATTR Value2 l='Lmin' w=24u ad='Lmin*Wpmos1' as='Lmin*Wpmos1' pd='2*(Lmin+Wpmos1)' ps='2*(Lmin+Wpmos1)' m=1
SYMBOL nmos4 80 384 R0
SYMATTR InstName M10
SYMATTR Value2 l='Lmin' w=12u ad='Lmin*Wnmos1' as='Lmin*Wnmos1' pd='2*(Lmin+Wnmos1)' ps='2*(Lmin+Wnmos1)' m=1
SYMBOL pmos4 -80 0 R0
SYMATTR InstName M6
SYMATTR Value2 l='Lmin' w=3u ad='Lmin*Wpmos1' as='Lmin*Wpmos1' pd='2*(Lmin+Wpmos1)' ps='2*(Lmin+Wpmos1)' m=1
SYMBOL voltage -624 -368 R0
WINDOW 123 0 0 Left 0
WINDOW 39 0 0 Left 0
SYMATTR InstName V2
SYMATTR Value PULSE(0 5 0.2u 1p 1p 0.2u)
SYMBOL voltage -624 -528 R0
WINDOW 123 0 0 Left 0
WINDOW 39 0 0 Left 0
SYMATTR InstName V3
SYMATTR Value PULSE(5 0 0 1p 1p 0.1u)
SYMBOL voltage -400 -144 R0
WINDOW 123 0 0 Left 0
WINDOW 39 0 0 Left 0
SYMATTR InstName V4
SYMATTR Value PULSE(0 5 0 1p 1p 0.1u 0.2u 5)
SYMBOL voltage -816 -144 R0
WINDOW 123 0 0 Left 0
WINDOW 39 0 0 Left 0
SYMATTR InstName V5
SYMATTR Value PULSE(5 0 0 1p 1p 0.1u 0.2u 5)
SYMBOL cap 224 352 R0
SYMATTR InstName C1
SYMATTR Value 1p
SYMBOL pmos4 816 224 R0
SYMATTR InstName M7
SYMATTR Value2 l='Lmin' w='Wpmos1' ad='Lmin*Wpmos1' as='Lmin*Wpmos1' pd='2*(Lmin+Wpmos1)' ps='2*(Lmin+Wpmos1)' m=1
SYMBOL pmos4 560 224 R270
SYMATTR InstName M11
SYMATTR Value2 l='Lmin' w=12u ad='Lmin*Wpmos1' as='Lmin*Wpmos1' pd='2*(Lmin+Wpmos1)' ps='2*(Lmin+Wpmos1)' m=1
SYMBOL nmos4 560 480 R270
SYMATTR InstName M12
SYMATTR Value2 l='Lmin' w=6u ad='Lmin*Wnmos1' as='Lmin*Wnmos1' pd='2*(Lmin+Wnmos1)' ps='2*(Lmin+Wnmos1)' m=1
SYMBOL nmos4 816 368 R0
SYMATTR InstName M13
SYMATTR Value2 l='Lmin' w='Wnmos1' ad='Lmin*Wnmos1' as='Lmin*Wnmos1' pd='2*(Lmin+Wnmos1)' ps='2*(Lmin+Wnmos1)' m=1
SYMBOL pmos4 1008 192 R270
SYMATTR InstName M14
SYMATTR Value2 l='Lmin' w=12u ad='Lmin*Wpmos1' as='Lmin*Wpmos1' pd='2*(Lmin+Wpmos1)' ps='2*(Lmin+Wpmos1)' m=1
SYMBOL nmos4 1024 496 R270
SYMATTR InstName M15
SYMATTR Value2 l='Lmin' w=6u ad='Lmin*Wnmos1' as='Lmin*Wnmos1' pd='2*(Lmin+Wnmos1)' ps='2*(Lmin+Wnmos1)' m=1
SYMBOL pmos4 1408 192 R0
SYMATTR InstName M16
SYMATTR Value2 l='Lmin' w=24u ad='Lmin*Wpmos1' as='Lmin*Wpmos1' pd='2*(Lmin+Wpmos1)' ps='2*(Lmin+Wpmos1)' m=1
SYMBOL nmos4 1408 352 R0
SYMATTR InstName M17
SYMATTR Value2 l='Lmin' w=12u ad='Lmin*Wnmos1' as='Lmin*Wnmos1' pd='2*(Lmin+Wnmos1)' ps='2*(Lmin+Wnmos1)' m=1
SYMBOL pmos4 1248 -32 R0
SYMATTR InstName M18
SYMATTR Value2 l='Lmin' w=3u ad='Lmin*Wpmos1' as='Lmin*Wpmos1' pd='2*(Lmin+Wpmos1)' ps='2*(Lmin+Wpmos1)' m=1
TEXT 160 -264 Left 2 !.include C5_models.txt
TEXT 160 -296 Left 2 !.param Lmin = 0.6u
TEXT 160 -240 Left 2 !.param Wnmos1 = 6u Wpmos1 = 12u
TEXT 160 -208 Left 2 !.tran 2u
